[
  "D:\\MyCode\\zama\\demo\\complex-manager.less",
  "D:\\MyCode\\zama\\demo\\upload-resolver-module.json",
  "D:\\MyCode\\zama\\demo\\manager",
  "D:\\MyCode\\zama\\demo\\manager\\validator-example.java",
  "D:\\MyCode\\zama\\demo\\queries.ts",
  "D:\\MyCode\\zama\\demo\\user-advanced.less",
  "D:\\MyCode\\zama\\demo\\adaptive",
  "D:\\MyCode\\zama\\demo\\adaptive\\template.styl",
  "D:\\MyCode\\zama\\demo\\adaptive\\responsive-config-router.toml",
  "D:\\MyCode\\zama\\demo\\adaptive\\import",
  "D:\\MyCode\\zama\\demo\\adaptive\\import\\fixture-sms.yaml",
  "D:\\MyCode\\zama\\demo\\adaptive\\import\\hooks-adaptive-common.tsx",
  "D:\\MyCode\\zama\\demo\\adaptive\\import\\types.toml",
  "D:\\MyCode\\zama\\demo\\adaptive\\import\\core-shared-helpers.json",
  "D:\\MyCode\\zama\\demo\\adaptive\\import\\module",
  "D:\\MyCode\\zama\\demo\\adaptive\\import\\module\\download.jsx",
  "D:\\MyCode\\zama\\demo\\responsive.py",
  "D:\\MyCode\\zama\\demo\\manager.less",
  "D:\\MyCode\\zama\\demo\\database.rst",
  "D:\\MyCode\\zama\\demo\\frontend\\web\\src\\global-auth-example.adoc",
  "D:\\MyCode\\zama\\demo\\frontend\\web\\src\\admin-endpoint-routes.go",
  "D:\\MyCode\\zama\\demo\\frontend\\web\\src\\middleware.yaml",
  "D:\\MyCode\\zama\\demo\\frontend\\web\\src\\customer",
  "D:\\MyCode\\zama\\demo\\frontend\\web\\src\\customer\\dynamic.sass",
  "D:\\MyCode\\zama\\demo\\frontend\\web\\src\\customer\\import.css",
  "D:\\MyCode\\zama\\demo\\frontend\\web\\src\\customer\\pages.ts",
  "D:\\MyCode\\zama\\demo\\frontend\\web\\src\\customer\\dist.yaml",
  "D:\\MyCode\\zama\\demo\\frontend\\web\\src\\customer\\shared-user",
  "D:\\MyCode\\zama\\demo\\frontend\\web\\src\\customer\\shared-user\\constants-sms-gateway.tsx",
  "D:\\MyCode\\zama\\demo\\frontend\\web\\src\\customer\\shared-user\\config-utils-dynamic.json",
  "D:\\MyCode\\zama\\demo\\frontend\\web\\src\\customer\\shared-user\\statistics.sol",
  "D:\\MyCode\\zama\\demo\\frontend\\web\\src\\customer\\shared-user\\message.scss",
  "D:\\MyCode\\zama\\demo\\frontend\\web\\src\\customer\\shared-user\\test.rst",
  "D:\\MyCode\\zama\\demo\\frontend\\web\\src\\customer\\shared-user\\app-payment-middleware",
  "D:\\MyCode\\zama\\demo\\frontend\\web\\src\\customer\\shared-user\\app-payment-middleware\\registry.sol",
  "D:\\MyCode\\zama\\demo\\frontend\\web\\src\\customer\\shared-user\\app-payment-middleware\\src.ts",
  "D:\\MyCode\\zama\\demo\\frontend\\web\\src\\customer\\shared-user\\app-payment-middleware\\routes-boilerplate.json",
  "D:\\MyCode\\zama\\demo\\frontend\\web\\src\\customer\\shared-user\\app-payment-middleware\\module.env",
  "D:\\MyCode\\zama\\demo\\frontend\\web\\src\\customer-service.sol",
  "D:\\MyCode\\zama\\demo\\frontend\\web\\src\\adapter-spec.styl",
  "D:\\MyCode\\zama\\demo\\frontend\\web\\src\\responsive.rst",
  "D:\\MyCode\\zama\\demo\\frontend\\web\\src\\test.txt",
  "D:\\MyCode\\zama\\demo\\frontend\\web\\src\\report-mock.scss",
  "D:\\MyCode\\zama\\demo\\frontend\\web\\src\\product-complex.js",
  "D:\\MyCode\\zama\\demo\\frontend\\web\\src\\gateway-layouts.txt"
]